CVER     := aarch64-buildroot-linux-gnu-
KVER     := {{ kver }}
CPU      := arm64

KDIR     := /buildroot/output/build/linux-$(KVER)/
TOOLS    := /buildroot/output/host/usr/bin/$(CVER)
MODPATH  := /rootfs
#MODPATH := /buildroot/output/target
